309
Lattice="   25.4587990    0.00000000    0.00000000    0.00000000    13.2287800    0.00000000    0.00000000    0.00000000    25.0000000"
Cu   0.00000000000   0.00000000000   0.00000000000
Cu   0.00000000000   4.40959300000   0.00000000000
Cu   0.00000000000   8.81918600001   0.00000000000
Cu   10.1835200000   0.00000000000   0.00000000000
Cu   10.1835200000   4.40959300000   0.00000000000
Cu   10.1835200000   8.81918600001   0.00000000000
Cu   11.4564600000   11.0239830000   0.00000000000
Cu   11.4564600000   2.20479700000   0.00000000000
Cu   11.4564600000   6.61439000000   0.00000000000
Cu   1.27294000000   11.0239830000   0.00000000000
Cu   1.27294000000   2.20479700000   0.00000000000
Cu   1.27294000000   6.61439000000   0.00000000000
Cu   12.7294000000   0.00000000000   0.00000000000
Cu   12.7294000000   4.40959300000   0.00000000000
Cu   12.7294000000   8.81918600001   0.00000000000
Cu   14.0023400000   11.0239830000   0.00000000000
Cu   14.0023400000   2.20479700000   0.00000000000
Cu   14.0023400000   6.61439000000   0.00000000000
Cu   15.2752800000   0.00000000000   0.00000000000
Cu   15.2752800000   4.40959300000   0.00000000000
Cu   15.2752800000   8.81918600001   0.00000000000
Cu   16.5482200000   11.0239830000   0.00000000000
Cu   16.5482200000   2.20479700000   0.00000000000
Cu   16.5482200000   6.61439000000   0.00000000000
Cu   17.8211600000   0.00000000000   0.00000000000
Cu   17.8211600000   4.40959300000   0.00000000000
Cu   17.8211600000   8.81918600001   0.00000000000
Cu   19.0941000000   11.0239830000   0.00000000000
Cu   19.0941000000   2.20479700000   0.00000000000
Cu   19.0941000000   6.61439000000   0.00000000000
Cu   20.3670400000   0.00000000000   0.00000000000
Cu   20.3670400000   4.40959300000   0.00000000000
Cu   20.3670400000   8.81918600001   0.00000000000
Cu   21.6399800000   11.0239830000   0.00000000000
Cu   21.6399800000   2.20479700000   0.00000000000
Cu   21.6399800000   6.61439000000   0.00000000000
Cu   22.9129200000   0.00000000000   0.00000000000
Cu   22.9129200000   4.40959300000   0.00000000000
Cu   22.9129200000   8.81918600001   0.00000000000
Cu   24.1858600000   11.0239830000   0.00000000000
Cu   24.1858600000   2.20479700000   0.00000000000
Cu   24.1858600000   6.61439000000   0.00000000000
Cu   2.54588000000   0.00000000000   0.00000000000
Cu   2.54588000000   4.40959300000   0.00000000000
Cu   2.54588000000   8.81918600001   0.00000000000
Cu   3.81882000000   11.0239830000   0.00000000000
Cu   3.81882000000   2.20479700000   0.00000000000
Cu   3.81882000000   6.61439000000   0.00000000000
Cu   5.09176000000   0.00000000000   0.00000000000
Cu   5.09176000000   4.40959300000   0.00000000000
Cu   5.09176000000   8.81918600001   0.00000000000
Cu   6.36469999998   11.0239830000   0.00000000000
Cu   6.36469999998   2.20479700000   0.00000000000
Cu   6.36469999998   6.61439000000   0.00000000000
Cu   7.63764000000   0.00000000000   0.00000000000
Cu   7.63764000000   4.40959300000   0.00000000000
Cu   7.63764000000   8.81918600001   0.00000000000
Cu   8.91057999998   11.0239830000   0.00000000000
Cu   8.91057999998   2.20479700000   0.00000000000
Cu   8.91057999998   6.61439000000   0.00000000000
Cu   0.00000000000   11.7589150000   2.07870200000
Cu   0.00000000000   2.93972900000   2.07870200000
Cu   0.00000000000   7.34932200001   2.07870200000
Cu   10.1835200000   11.7589150000   2.07870200000
Cu   10.1835200000   2.93972900000   2.07870200000
Cu   10.1835200000   7.34932200001   2.07870200000
Cu   11.4564600000   5.14452500000   2.07870200000
Cu   11.4564600000  0.734931999998   2.07870200000
Cu   11.4564600000   9.55411800002   2.07870200000
Cu   1.27294000000   5.14452500000   2.07870200000
Cu   1.27294000000  0.734931999998   2.07870200000
Cu   1.27294000000   9.55411800002   2.07870200000
Cu   12.7294000000   11.7589150000   2.07870200000
Cu   12.7294000000   2.93972900000   2.07870200000
Cu   12.7294000000   7.34932200001   2.07870200000
Cu   14.0023400000   5.14452500000   2.07870200000
Cu   14.0023400000  0.734931999998   2.07870200000
Cu   14.0023400000   9.55411800002   2.07870200000
Cu   15.2752800000   11.7589150000   2.07870200000
Cu   15.2752800000   2.93972900000   2.07870200000
Cu   15.2752800000   7.34932200001   2.07870200000
Cu   16.5482200000   5.14452500000   2.07870200000
Cu   16.5482200000  0.734931999998   2.07870200000
Cu   16.5482200000   9.55411800002   2.07870200000
Cu   17.8211600000   11.7589150000   2.07870200000
Cu   17.8211600000   2.93972900000   2.07870200000
Cu   17.8211600000   7.34932200001   2.07870200000
Cu   19.0941000000   5.14452500000   2.07870200000
Cu   19.0941000000  0.734931999998   2.07870200000
Cu   19.0941000000   9.55411800002   2.07870200000
Cu   20.3670400000   11.7589150000   2.07870200000
Cu   20.3670400000   2.93972900000   2.07870200000
Cu   20.3670400000   7.34932200001   2.07870200000
Cu   21.6399800000   5.14452500000   2.07870200000
Cu   21.6399800000  0.734931999998   2.07870200000
Cu   21.6399800000   9.55411800002   2.07870200000
Cu   22.9129200000   11.7589150000   2.07870200000
Cu   22.9129200000   2.93972900000   2.07870200000
Cu   22.9129200000   7.34932200001   2.07870200000
Cu   24.1858600000   5.14452500000   2.07870200000
Cu   24.1858600000  0.734931999998   2.07870200000
Cu   24.1858600000   9.55411800002   2.07870200000
Cu   2.54588000000   11.7589150000   2.07870200000
Cu   2.54588000000   2.93972900000   2.07870200000
Cu   2.54588000000   7.34932200001   2.07870200000
Cu   3.81882000000   5.14452500000   2.07870200000
Cu   3.81882000000  0.734931999998   2.07870200000
Cu   3.81882000000   9.55411800002   2.07870200000
Cu   5.09176000000   11.7589150000   2.07870200000
Cu   5.09176000000   2.93972900000   2.07870200000
Cu   5.09176000000   7.34932200001   2.07870200000
Cu   6.36469999998   5.14452500000   2.07870200000
Cu   6.36469999998  0.734931999998   2.07870200000
Cu   6.36469999998   9.55411800002   2.07870200000
Cu   7.63764000000   11.7589150000   2.07870200000
Cu   7.63764000000   2.93972900000   2.07870200000
Cu   7.63764000000   7.34932200001   2.07870200000
Cu   8.91057999998   5.14452500000   2.07870200000
Cu   8.91057999998  0.734931999998   2.07870200000
Cu   8.91057999998   9.55411800002   2.07870200000
Cu 2.55604589008e-06   10.3548259415   4.28479138951
Cu 6.73077702687e-07   1.47873198119   4.28543721504
Cu   25.4587988397   5.78421882350   3.91125440924
Cu   10.1932616506   10.2570595549   4.31243597019
Cu   10.1914280089   1.47947445121   4.31178107192
Cu   10.2199360794   5.88393334683   4.30331694641
Cu   11.4316550386   12.4900207600   4.30076408210
Cu   11.4493676077   3.68807220278   4.30047575443
Cu   11.4535974000   8.06757463780   4.30189846947
Cu   1.25066691275   12.5179938439   4.29045378544
Cu   1.30329052861   3.68019712235   4.32997566873
Cu   1.30280147535   8.25395490041   4.08455890006
Cu   12.7293993407   10.2696857884   4.31640254703
Cu   12.7293994705   1.49491917320   4.29381042831
Cu   12.7293999695   5.87277100545   4.30416267089
Cu   14.0271435725   12.4900252145   4.30076333860
Cu   14.0094311710   3.68807172341   4.30047490751
Cu   14.0052052321   8.06757383171   4.30189811129
Cu   15.2655377015   10.2570611179   4.31243679765
Cu   15.2673712518   1.47947516859   4.31178117287
Cu   15.2388641411   5.88393270125   4.30331625842
Cu   16.5646896139   12.4818405762   4.30487610774
Cu   16.5162582481   3.65808984928   4.31058226373
Cu   16.5555447609   8.06751004281   4.29201409151
Cu   17.8162945488   10.2747508903   4.30022203569
Cu   17.8137418094   1.45899955821   4.30050671739
Cu   17.7373855170   5.82570360743   4.25972598043
Cu   19.1050855343   12.5125334061   4.30093374129
Cu   18.9993812556   3.60109776078   4.18582038517
Cu   19.0905587950   8.02468786015   4.26612216488
Cu   20.3527299451   10.3266550178   4.26747737675
Cu   20.3990218357   1.45805148469   4.29391364200
Cu   20.2118059909   5.77407024777   4.09363453024
Cu   21.6476830821   12.5237147093   4.27979200979
Cu   21.5793538083   3.59983245369   4.19617282279
Cu   21.6092169271   8.15930220241   4.05751788058
Cu   22.9091653431   10.3730134447   4.27490175155
Cu   22.9457084402   1.45716252521   4.29753008327
Cu   22.7197894169   5.80608186339   4.06476685653
Cu   24.2081438716   12.5179938350   4.29045361715
Cu   24.1555093948   3.68019671259   4.32997534460
Cu   24.1559981882   8.25395626551   4.08455894983
Cu   2.54963567467   10.3730097459   4.27490221932
Cu   2.51309047195   1.45716341752   4.29753056438
Cu   2.73900966300   5.80608106351   4.06476722756
Cu   3.81111784189   12.5237134735   4.27979172129
Cu   3.87944497137   3.59983152026   4.19617453955
Cu   3.84958337510   8.15930428082   4.05751838809
Cu   5.10607108939   10.3266558435   4.26747642062
Cu   5.05977558699   1.45805135290   4.29391316288
Cu   5.24699269652   5.77406992074   4.09363511276
Cu   6.35371354800   12.5125344681   4.30093267170
Cu   6.45941726028   3.60109804453   4.18581614425
Cu   6.36824152218   8.02468720178   4.26612093753
Cu   7.64250539186   10.2747512940   4.30022181990
Cu   7.64505734727   1.45899995083   4.30050723427
Cu   7.72141455547   5.82570372455   4.25972550431
Cu   8.89410918097   12.4818410702   4.30487641455
Cu   8.94254119632   3.65809009879   4.31058269481
Cu   8.90325462512   8.06751063931   4.29201329934
Cu 1.52348317492e-06   13.2145494593   6.38121121449
Cu 6.29765216264e-07   4.46622032418   6.39767852325
Cu 4.43480662319e-07   8.71689395925   6.24241780251
Cu   10.1858995547 0.0280602277125   6.38591806760
Cu   10.1901801494   4.43655444198   6.38903483048
Cu   10.1875944656   8.79719800490   6.39178376162
Cu   11.4369980700   11.0391045716   6.39366842454
Cu   11.4442452460   2.25046249118   6.38917819905
Cu   11.4482309553   6.61857750149   6.39652594415
Cu   1.27888293502   10.9904117638   6.37266601321
Cu   1.26216772252   2.19679834390   6.38816056116
Cu   1.30161021826   6.58565180836   5.73227465228
Cu   12.7293992541 0.0283269797963   6.38256487628
Cu   12.7293989754   4.44439580256   6.39177675539
Cu   12.7293999449   8.80521132846   6.39440090214
Cu   14.0218027943   11.0391051204   6.39366856375
Cu   14.0145538697   2.25046192036   6.38917989380
Cu   14.0105704042   6.61857643721   6.39652639874
Cu   15.2728999186 0.0280604762122   6.38591813318
Cu   15.2686183049   4.43655431819   6.38903367451
Cu   15.2712049315   8.79719803947   6.39178312550
Cu   16.5695703971   11.0363485343   6.38687380405
Cu   16.5747528105   2.21015907265   6.39441077767
Cu   16.5394074823   6.60388921006   6.38691266410
Cu   17.8413219721 0.0202813151542   6.39160905003
Cu   17.7878068049   4.40375356510   6.37432684824
Cu   17.7901176661   8.81571649886   6.38556489722
Cu   19.0888486755   11.0705440381   6.38787558501
Cu   19.1150063861   2.19713593815   6.37619804259
Cu   18.9906612201   6.61607326061   6.38636981876
Cu   20.4157794413 0.00689569395920   6.36700189202
Cu   20.2378763886   4.40436010462   6.22377957339
Cu   20.2754649980   8.89155667589   6.31706782447
Cu   21.6372603896   11.0359705855   6.37077205501
Cu   21.6518328053   2.20179860692   6.37959822718
Cu   21.3911819073   6.63651003308   6.00415025690
Cu   22.9480318099   13.2222782143   6.37583753806
Cu   22.7514666495   4.51401172693   6.25247723928
Cu   22.7969719421   8.70483494262   6.22052343250
Cu   24.1799190810   10.9904129760   6.37266450437
Cu   24.1966343861   2.19679767175   6.38816073421
Cu   24.1571888661   6.58565106956   5.73227346603
Cu   2.51076888094   13.2222780703   6.37583705604
Cu   2.70733312632   4.51401125425   6.25247858300
Cu   2.66182831682   8.70483385301   6.22052458565
Cu   3.82153969965   11.0359685828   6.37077097993
Cu   3.80696669092   2.20179809428   6.37959893778
Cu   4.06761704975   6.63651001904   6.00415014714
Cu   5.04301864357 0.00689546021695   6.36700051510
Cu   5.22092353579   4.40436008077   6.22377870943
Cu   5.18333534167   8.89155600356   6.31706523020
Cu   6.36995013572   11.0705452283   6.38787441282
Cu   6.34379253442   2.19713593631   6.37619733261
Cu   6.46814078024   6.61607322719   6.38636945046
Cu   7.61747779026 0.0202815861861   6.39160957983
Cu   7.67099242128   4.40375222108   6.37432689003
Cu   7.66868160942   8.81571664075   6.38556543075
Cu   8.88922871271   11.0363478322   6.38687413438
Cu   8.88404603090   2.21015765216   6.39440998957
Cu   8.91939285418   6.60388904148   6.38691303808
Cu 8.92300690922e-07   6.64351722171   7.70522508191
Cu   2.49901664291   6.63299237738   7.72294416155
Cu   22.9597808147   6.63299165209   7.72294257462
C 8.58783857907e-08   5.43727706064   9.12595928711
C 1.23344707618e-07   7.78377873457   9.17493271581
C   2.48272443949   5.46590903153   9.16612968014
C   2.48186967291   7.76068669850   9.19924298917
C   22.9760747983   5.46590969655   9.16612968605
C   22.9769294957   7.76068601479   9.19924288989
H   4.63294990626   5.33902621234   9.10853628996
H   4.62995446980   7.88909646051   9.11952984405
H   20.8258492964   5.33902628032   9.10853645900
H   20.8288445524   7.88909624888   9.11953037115
C   1.23356131496   4.86041617129   9.49014818038
C   1.23225751441   8.36650708028   9.52177546072
C   24.2252378058   4.86041653819   9.49014812293
C   24.2265416877   8.36650688614   9.52177551894
C   3.69103977078   4.85733362088   9.38457901478
C   3.68991349193   8.37082430924   9.40401020359
C   21.7677595673   4.85733390426   9.38457900680
C   21.7688857148   8.37082408878   9.40401040494
C   1.24016586558   3.50139561927   9.92201708999
C   1.23993567250   9.73275550830   9.93270558241
C   24.2186332957   3.50139576999   9.92201699130
C   24.2188635977   9.73275551485   9.93270564960
C   3.72802864095   3.49349344926   9.79679674254
C   3.72801377554   9.73876123263   9.80497908439
C   21.7307707237   3.49349358546   9.79679652557
C   21.7307854913   9.73876118617   9.80497915972
H   5.87340836972   3.32599448715   9.67043878604
H   5.87265659149   9.90483716320   9.67240772790
H   19.5853909209   3.32599453498   9.67043876797
H   19.5861426784   9.90483717810   9.67240778679
C 7.31052750934e-08   2.80283592249   10.0691374443
C 1.50332650034e-07   10.4324114194   10.0721740550
C   2.48284458125   2.81065677781   10.0176206438
C   2.48303464870   10.4232217988   10.0211957112
C   22.9759546850   2.81065675175   10.0176204240
C   22.9757645916   10.4232217885   10.0211957452
C   4.94281058721   2.79057151467   9.87548361869
C   4.94273880890   10.4416521178   9.87688786204
C   20.5159887549   2.79057160413   9.87548346710
C   20.5160604583   10.4416521016   9.87688794180
C 9.70390003525e-08   1.39915427734   10.2414226353
C 1.56537437094e-07   11.8367420151   10.2402674927
C   2.48655931536   1.40652937877   10.2102828379
C   2.48649231623   11.8280061149   10.2092386424
C   22.9722399580   1.40652931349   10.2102827343
C   22.9723069512   11.8280060854   10.2092386196
C   4.97486727121   1.41255365229   10.1206869195
C   4.97470670874   11.8203136374   10.1198442505
C   20.4839320275   1.41255371465   10.1206868999
C   20.4840925383   11.8203136532   10.1198442596
C   1.24380811587  0.713254949495   10.2813742574
C   1.24398222446   12.5218889873   10.2806348600
C   24.2149911582  0.713254905639   10.2813742392
C   24.2148170421   12.5218889255   10.2806348512
C   3.72644939767  0.714634901371   10.2316615946
C   3.72669192798   12.5189209193   10.2308612732
C   21.7323498637  0.714634890038   10.2316616203
C   21.7321072978   12.5189209083   10.2308612905
C   6.21069671852  0.683919301764   10.1688085164
C   6.21054875558   12.5480348687   10.1682994930
C   19.2481025968  0.683919358231   10.1688085245
C   19.2482505665   12.5480348945   10.1682994432
H   7.16149199125   1.22156915750   10.1730780932
H   7.16055696662   12.0087945081   10.1730721021
H   18.2973073636   1.22156922030   10.1730781084
H   18.2982423321   12.0087945713   10.1730721247
