data_1
_audit_creation_method   'vasp2cif'
_cell_length_a    25.458799
_cell_length_b    15.4859831866927
_cell_length_c    25.0
_cell_angle_alpha    90.0
_cell_angle_beta    90.0
_cell_angle_gamma    85.28499595940424

_symmetry_space_group_name_H-M    'P 1'
loop_
_atom_site_label
_atom_site_type_symbol
_atom_site_fract_x
_atom_site_fract_y
_atom_site_fract_z
_atom_site_occupancy
C1   C   0.951585428557784   0.650376720834062   0.350939981200000   1.0
C2   C   0.149094507061851   0.621830088384566   0.358105155600000   1.0
C3   C   0.147375806677555   0.352418087524363   0.350591554800000   1.0
C4   C   0.949389498190164   0.379611209378098   0.357400786800000   1.0
C5   C   0.047815055995479   0.372555305228334   0.347429899600000   1.0
C6   C   0.050522070675342   0.630205428074127   0.348333742000000   1.0
C7   C   0.904221798565286   0.700861375169217   0.357760831200000   1.0
C8   C   0.196344832507542   0.659350499239418   0.363308254400000   1.0
C9   C   0.902101330780233   0.341565699902233   0.362737002400000   1.0
C10   C   0.194853084408053   0.301866843311826   0.357527991600000   1.0
C11   C   0.096487725033273   0.316661156386494   0.351598175200000   1.0
C12   C   -0.000410916045919   0.329508201501181   0.354347347200000   1.0
C13   C   0.099122463552295   0.672079771267542   0.355249672800000   1.0
C14   C   0.002361801382066   0.686351705764646   0.351623358400000   1.0
C15   C   0.099390444427312   0.764307133725383   0.364791970400000   1.0
C16   C   0.001832174498976   0.778038798134742   0.362821414400000   1.0
C17   C   0.097477903372161   0.224402400039861   0.362352143600000   1.0
C18   C   -0.000444589177127   0.237062509229066   0.363875164000000   1.0
C19   C   0.901470937941402   0.249390769877910   0.368260134400000   1.0
C20   C   0.196127249076074   0.210003485906086   0.365207034000000   1.0
C21   C   0.903349288332162   0.792448380566605   0.365384993200000   1.0
C22   C   0.197525578983491   0.751401305089546   0.368340602000000   1.0
C23   C   0.050471483050085   0.816632573252461   0.369552558800000   1.0
C24   C   0.048727484903970   0.184839620134723   0.368274946000000   1.0
C25   C   0.146520425991728   0.172049417319135   0.368524125600000   1.0
C26   C   0.951097701107731   0.197833517790464   0.371268328400000   1.0
C27   C   0.952903688074966   0.829932549013103   0.369179236400000   1.0
C28   C   0.147977240349817   0.803441781513126   0.371186448800000   1.0
C29   C   0.049287032680958   0.093185846677021   0.377292956000000   1.0
C30   C   0.050119320485078   0.908036886069898   0.377816317600000   1.0
C31   C   0.854340779673257   0.208211630395209   0.372855774400000   1.0
C32   C   0.244117182841514   0.157050638358172   0.369720041200000   1.0
C33   C   0.855351425563927   0.845258050029491   0.369500823200000   1.0
C34   C   0.244836889131887   0.792738449421025   0.372418396400000   1.0
C35   C   0.951745892856022   0.106064319373273   0.378946515200000   1.0
C36   C   0.146907749698187   0.080320304878124   0.377731789200000   1.0
C37   C   0.952614402132583   0.921225675681017   0.378222716800000   1.0
C38   C   0.147617062098106   0.895331529430928   0.378306254400000   1.0
C39   C   0.000626850186596   0.053446198246848   0.379983610400000   1.0
C40   C   0.098265019466389   0.040552618877659   0.379602139600000   1.0
C41   C   0.001214822107692   0.960779941033760   0.379800363600000   1.0
C42   C   0.098696483351832   0.947946201972491   0.379908258000000   1.0
C43   C   0.903554439808337   0.065877835060531   0.383024768800000   1.0
C44   C   0.195651586597604   0.027833898518794   0.382137358800000   1.0
C45   C   0.903909457999130   0.973762388330327   0.382700578000000   1.0
C46   C   0.195921003334747   0.935663249031640   0.382356680000000   1.0
C47   C   0.854549592014310   0.118752809539875   0.382409880000000   1.0
C48   C   0.244489897213120   0.067739806527029   0.381573200000000   1.0
C49   C   0.855009441794967   0.934321946234499   0.381943184400000   1.0
C50   C   0.244852681449288   0.882536873985856   0.381531300800000   1.0
C51   C   0.807238104238129   0.076345043018867   0.389734525600000   1.0
C52   C   0.291989524377640   0.013486306317712   0.389550963200000   1.0
C53   C   0.807453410646647   0.988345339515266   0.390061761200000   1.0
C54   C   0.292214534140400   0.925056790140095   0.388985144800000   1.0
Cu55   Cu   0.000000000000000   0.000000000000000   0.000000000000000   1.0
Cu56   Cu   0.957142856385091   0.857142838630345   0.000000000000000   1.0
Cu57   Cu   0.985714296260663   0.285714063564137   0.000000000000000   1.0
Cu58   Cu   0.971428560124428   0.571428775066208   0.000000000000000   1.0
Cu59   Cu   0.400000015711660   0.000000000000000   0.000000000000000   1.0
Cu60   Cu   0.357142872096751   0.857142838630345   0.000000000000000   1.0
Cu61   Cu   0.385714311972323   0.285714063564137   0.000000000000000   1.0
Cu62   Cu   0.371428575836088   0.571428775066208   0.000000000000000   1.0
Cu63   Cu   0.414285742128826   0.714285482879309   0.000000000000000   1.0
Cu64   Cu   0.442857149607500   0.142857355751036   0.000000000000000   1.0
Cu65   Cu   0.428571445868163   0.428571419315172   0.000000000000000   1.0
Cu66   Cu   0.014285726417166   0.714285482879309   0.000000000000000   1.0
Cu67   Cu   0.042857133895840   0.142857355751036   0.000000000000000   1.0
Cu68   Cu   0.028571430156503   0.428571419315172   0.000000000000000   1.0
Cu69   Cu   0.500000019639575   0.000000000000000   0.000000000000000   1.0
Cu70   Cu   0.457142876024666   0.857142838630345   0.000000000000000   1.0
Cu71   Cu   0.485714315900238   0.285714063564137   0.000000000000000   1.0
Cu72   Cu   0.471428579764003   0.571428775066208   0.000000000000000   1.0
Cu73   Cu   0.514285746056741   0.714285482879309   0.000000000000000   1.0
Cu74   Cu   0.542857153535415   0.142857355751036   0.000000000000000   1.0
Cu75   Cu   0.528571449796078   0.428571419315172   0.000000000000000   1.0
Cu76   Cu   0.600000023567490   0.000000000000000   0.000000000000000   1.0
Cu77   Cu   0.557142879952581   0.857142838630345   0.000000000000000   1.0
Cu78   Cu   0.585714319828153   0.285714063564137   0.000000000000000   1.0
Cu79   Cu   0.571428583691918   0.571428775066208   0.000000000000000   1.0
Cu80   Cu   0.614285749984656   0.714285482879309   0.000000000000000   1.0
Cu81   Cu   0.642857157463330   0.142857355751036   0.000000000000000   1.0
Cu82   Cu   0.628571453723993   0.428571419315172   0.000000000000000   1.0
Cu83   Cu   0.700000027495405   0.000000000000000   0.000000000000000   1.0
Cu84   Cu   0.657142883880496   0.857142838630345   0.000000000000000   1.0
Cu85   Cu   0.685714323756068   0.285714063564137   0.000000000000000   1.0
Cu86   Cu   0.671428587619833   0.571428775066208   0.000000000000000   1.0
Cu87   Cu   0.714285753912571   0.714285482879309   0.000000000000000   1.0
Cu88   Cu   0.742857161391246   0.142857355751036   0.000000000000000   1.0
Cu89   Cu   0.728571457651908   0.428571419315172   0.000000000000000   1.0
Cu90   Cu   0.800000031423321   0.000000000000000   0.000000000000000   1.0
Cu91   Cu   0.757142887808411   0.857142838630345   0.000000000000000   1.0
Cu92   Cu   0.785714327683983   0.285714063564137   0.000000000000000   1.0
Cu93   Cu   0.771428591547748   0.571428775066208   0.000000000000000   1.0
Cu94   Cu   0.814285757840486   0.714285482879309   0.000000000000000   1.0
Cu95   Cu   0.842857165319161   0.142857355751036   0.000000000000000   1.0
Cu96   Cu   0.828571461579824   0.428571419315172   0.000000000000000   1.0
Cu97   Cu   0.900000035351236   0.000000000000000   0.000000000000000   1.0
Cu98   Cu   0.857142891736326   0.857142838630345   0.000000000000000   1.0
Cu99   Cu   0.885714331611899   0.285714063564137   0.000000000000000   1.0
Cu100   Cu   0.871428595475664   0.571428775066208   0.000000000000000   1.0
Cu101   Cu   0.914285761768401   0.714285482879309   0.000000000000000   1.0
Cu102   Cu   0.942857169247076   0.142857355751036   0.000000000000000   1.0
Cu103   Cu   0.928571465507739   0.428571419315172   0.000000000000000   1.0
Cu104   Cu   0.100000003927915   0.000000000000000   0.000000000000000   1.0
Cu105   Cu   0.057142860313006   0.857142838630345   0.000000000000000   1.0
Cu106   Cu   0.085714300188578   0.285714063564137   0.000000000000000   1.0
Cu107   Cu   0.071428564052343   0.571428775066208   0.000000000000000   1.0
Cu108   Cu   0.114285730345081   0.714285482879309   0.000000000000000   1.0
Cu109   Cu   0.142857137823755   0.142857355751036   0.000000000000000   1.0
Cu110   Cu   0.128571434084418   0.428571419315172   0.000000000000000   1.0
Cu111   Cu   0.200000007855830   0.000000000000000   0.000000000000000   1.0
Cu112   Cu   0.157142864240921   0.857142838630345   0.000000000000000   1.0
Cu113   Cu   0.185714304116493   0.285714063564137   0.000000000000000   1.0
Cu114   Cu   0.171428567980258   0.571428775066208   0.000000000000000   1.0
Cu115   Cu   0.214285734272996   0.714285482879309   0.000000000000000   1.0
Cu116   Cu   0.242857141751670   0.142857355751036   0.000000000000000   1.0
Cu117   Cu   0.228571438012333   0.428571419315172   0.000000000000000   1.0
Cu118   Cu   0.300000011783745   0.000000000000000   0.000000000000000   1.0
Cu119   Cu   0.257142868168836   0.857142838630345   0.000000000000000   1.0
Cu120   Cu   0.285714308044408   0.285714063564137   0.000000000000000   1.0
Cu121   Cu   0.271428571908173   0.571428775066208   0.000000000000000   1.0
Cu122   Cu   0.314285738200911   0.714285482879309   0.000000000000000   1.0
Cu123   Cu   0.342857145679585   0.142857355751036   0.000000000000000   1.0
Cu124   Cu   0.328571441940248   0.428571419315172   0.000000000000000   1.0
Cu125   Cu   0.961904746832571   0.761905033421611   0.083148000000000   1.0
Cu126   Cu   0.990476186708143   0.190476258355403   0.083148000000000   1.0
Cu127   Cu   0.976190482968806   0.476190321919539   0.083148000000000   1.0
Cu128   Cu   0.361904762544231   0.761905033421611   0.083148000000000   1.0
Cu129   Cu   0.390476202419803   0.190476258355403   0.083148000000000   1.0
Cu130   Cu   0.376190498680466   0.476190321919539   0.083148000000000   1.0
Cu131   Cu   0.404761928836969   0.904761741234712   0.083148000000000   1.0
Cu132   Cu   0.433333336315643   0.333333614106438   0.083148000000000   1.0
Cu133   Cu   0.447619072451878   0.047618902604367   0.083148000000000   1.0
Cu134   Cu   0.419047632576306   0.619047677670575   0.083148000000000   1.0
Cu135   Cu   0.004761913125308   0.904761741234712   0.083148000000000   1.0
Cu136   Cu   0.033333320603983   0.333333614106438   0.083148000000000   1.0
Cu137   Cu   0.047619056740218   0.047618902604367   0.083148000000000   1.0
Cu138   Cu   0.019047616864645   0.619047677670575   0.083148000000000   1.0
Cu139   Cu   0.461904766472146   0.761905033421611   0.083148000000000   1.0
Cu140   Cu   0.490476206347718   0.190476258355403   0.083148000000000   1.0
Cu141   Cu   0.476190502608381   0.476190321919539   0.083148000000000   1.0
Cu142   Cu   0.504761932764884   0.904761741234712   0.083148000000000   1.0
Cu143   Cu   0.533333340243558   0.333333614106438   0.083148000000000   1.0
Cu144   Cu   0.547619076379793   0.047618902604367   0.083148000000000   1.0
Cu145   Cu   0.519047636504221   0.619047677670575   0.083148000000000   1.0
Cu146   Cu   0.561904770400061   0.761905033421611   0.083148000000000   1.0
Cu147   Cu   0.590476210275633   0.190476258355403   0.083148000000000   1.0
Cu148   Cu   0.576190506536296   0.476190321919539   0.083148000000000   1.0
Cu149   Cu   0.604761936692799   0.904761741234712   0.083148000000000   1.0
Cu150   Cu   0.633333344171473   0.333333614106438   0.083148000000000   1.0
Cu151   Cu   0.647619080307708   0.047618902604367   0.083148000000000   1.0
Cu152   Cu   0.619047640432136   0.619047677670575   0.083148000000000   1.0
Cu153   Cu   0.661904774327976   0.761905033421611   0.083148000000000   1.0
Cu154   Cu   0.690476214203548   0.190476258355403   0.083148000000000   1.0
Cu155   Cu   0.676190510464211   0.476190321919539   0.083148000000000   1.0
Cu156   Cu   0.704761940620714   0.904761741234712   0.083148000000000   1.0
Cu157   Cu   0.733333348099388   0.333333614106438   0.083148000000000   1.0
Cu158   Cu   0.747619084235623   0.047618902604367   0.083148000000000   1.0
Cu159   Cu   0.719047644360051   0.619047677670575   0.083148000000000   1.0
Cu160   Cu   0.761904778255891   0.761905033421611   0.083148000000000   1.0
Cu161   Cu   0.790476218131463   0.190476258355403   0.083148000000000   1.0
Cu162   Cu   0.776190514392126   0.476190321919539   0.083148000000000   1.0
Cu163   Cu   0.804761944548629   0.904761741234712   0.083148000000000   1.0
Cu164   Cu   0.833333352027303   0.333333614106438   0.083148000000000   1.0
Cu165   Cu   0.847619088163538   0.047618902604367   0.083148000000000   1.0
Cu166   Cu   0.819047648287966   0.619047677670575   0.083148000000000   1.0
Cu167   Cu   0.861904782183806   0.761905033421611   0.083148000000000   1.0
Cu168   Cu   0.890476222059378   0.190476258355403   0.083148000000000   1.0
Cu169   Cu   0.876190518320041   0.476190321919539   0.083148000000000   1.0
Cu170   Cu   0.904761948476544   0.904761741234712   0.083148000000000   1.0
Cu171   Cu   0.933333355955218   0.333333614106438   0.083148000000000   1.0
Cu172   Cu   0.947619092091453   0.047618902604367   0.083148000000000   1.0
Cu173   Cu   0.919047652215881   0.619047677670575   0.083148000000000   1.0
Cu174   Cu   0.061904750760485   0.761905033421611   0.083148000000000   1.0
Cu175   Cu   0.090476190636058   0.190476258355403   0.083148000000000   1.0
Cu176   Cu   0.076190486896721   0.476190321919539   0.083148000000000   1.0
Cu177   Cu   0.104761917053223   0.904761741234712   0.083148000000000   1.0
Cu178   Cu   0.133333324531898   0.333333614106438   0.083148000000000   1.0
Cu179   Cu   0.147619060668133   0.047618902604367   0.083148000000000   1.0
Cu180   Cu   0.119047620792561   0.619047677670575   0.083148000000000   1.0
Cu181   Cu   0.161904754688400   0.761905033421611   0.083148000000000   1.0
Cu182   Cu   0.190476194563973   0.190476258355403   0.083148000000000   1.0
Cu183   Cu   0.176190490824636   0.476190321919539   0.083148000000000   1.0
Cu184   Cu   0.204761920981138   0.904761741234712   0.083148000000000   1.0
Cu185   Cu   0.233333328459813   0.333333614106438   0.083148000000000   1.0
Cu186   Cu   0.247619064596048   0.047618902604367   0.083148000000000   1.0
Cu187   Cu   0.219047624720476   0.619047677670575   0.083148000000000   1.0
Cu188   Cu   0.261904758616316   0.761905033421611   0.083148000000000   1.0
Cu189   Cu   0.290476198491888   0.190476258355403   0.083148000000000   1.0
Cu190   Cu   0.276190494752551   0.476190321919539   0.083148000000000   1.0
Cu191   Cu   0.304761924909054   0.904761741234712   0.083148000000000   1.0
Cu192   Cu   0.333333332387728   0.333333614106438   0.083148000000000   1.0
Cu193   Cu   0.347619068523963   0.047618902604367   0.083148000000000   1.0
Cu194   Cu   0.319047628648391   0.619047677670575   0.083148000000000   1.0
Cu195   Cu   0.966780353456505   0.665266237373229   0.180055806400000   1.0
Cu196   Cu   0.995003103944520   0.103478539680075   0.185546574800000   1.0
Cu197   Cu   0.952834345206527   0.956357978451787   0.182903897600000   1.0
Cu198   Cu   0.980115576905274   0.383940822662173   0.179542450800000   1.0
Cu199   Cu   0.364150914252478   0.662405980156123   0.186278996000000   1.0
Cu200   Cu   0.394482057546916   0.092894156681889   0.182967095200000   1.0
Cu201   Cu   0.351225594217388   0.949929449278025   0.185326094800000   1.0
Cu202   Cu   0.380197371948480   0.378001498291679   0.183364458400000   1.0
Cu203   Cu   0.408452201391498   0.803969475125565   0.185114746400000   1.0
Cu204   Cu   0.435777901148640   0.234711067304747   0.186928275200000   1.0
Cu205   Cu   0.422784037252487   0.519852605134895   0.185287014800000   1.0
Cu206   Cu   0.008537654783729   0.811359563631944   0.182196952000000   1.0
Cu207   Cu   0.039183085860360   0.243295169357045   0.178089076400000   1.0
Cu208   Cu   0.026138655868037   0.523149020476588   0.176161923200000   1.0
Cu209   Cu   0.466506179937717   0.662107352041591   0.183321553200000   1.0
Cu210   Cu   0.494136768388837   0.091517773877047   0.184228247200000   1.0
Cu211   Cu   0.450823268872456   0.948078238764740   0.184927715200000   1.0
Cu212   Cu   0.479781080611223   0.376392056747441   0.188380042400000   1.0
Cu213   Cu   0.508660857873723   0.804957625831005   0.184454740400000   1.0
Cu214   Cu   0.538064554919626   0.235141049284945   0.184717905600000   1.0
Cu215   Cu   0.525323213239991   0.520843483659038   0.184160948000000   1.0
Cu216   Cu   0.566768124201853   0.663954111221268   0.182953526000000   1.0
Cu217   Cu   0.596009241733570   0.093552494667957   0.183161346800000   1.0
Cu218   Cu   0.552415168012691   0.948946119230817   0.183754938800000   1.0
Cu219   Cu   0.580578512361958   0.377982269437603   0.185020048800000   1.0
Cu220   Cu   0.611236882301842   0.804477879625702   0.185277160000000   1.0
Cu221   Cu   0.638698570207118   0.236369962063882   0.185584749600000   1.0
Cu222   Cu   0.625407029618848   0.519399060243779   0.185297287200000   1.0
Cu223   Cu   0.669505478944628   0.661588748998369   0.197443334800000   1.0
Cu224   Cu   0.695659003330160   0.093147879457886   0.183484048800000   1.0
Cu225   Cu   0.652127383183705   0.949455456761579   0.183888222800000   1.0
Cu226   Cu   0.681666738664185   0.377070416015678   0.185466748800000   1.0
Cu227   Cu   0.709952889254452   0.805487684416905   0.181938626400000   1.0
Cu228   Cu   0.738573050151944   0.235790429529072   0.183461974400000   1.0
Cu229   Cu   0.724550587078423   0.520488898328625   0.184436732400000   1.0
Cu230   Cu   0.767723713005726   0.664198079291664   0.185345665200000   1.0
Cu231   Cu   0.795484465933277   0.092540476520770   0.184459789200000   1.0
Cu232   Cu   0.752866900935728   0.949199644385744   0.185786484000000   1.0
Cu233   Cu   0.780224278079943   0.378533811053653   0.183852473600000   1.0
Cu234   Cu   0.809743129469896   0.808599011104166   0.184808853600000   1.0
Cu235   Cu   0.837142095760946   0.237247041952750   0.183048748000000   1.0
Cu236   Cu   0.821773653245435   0.522092823329290   0.181521928400000   1.0
Cu237   Cu   0.866821107436021   0.666912310736519   0.181416454400000   1.0
Cu238   Cu   0.895167307165806   0.097730494363037   0.181215280400000   1.0
Cu239   Cu   0.854004015131690   0.952887907968451   0.189798282400000   1.0
Cu240   Cu   0.877352064870187   0.378186896660444   0.172871640000000   1.0
Cu241   Cu   0.909002100632055   0.809240521494142   0.182794519600000   1.0
Cu242   Cu   0.936439116958548   0.243602169477627   0.183696550000000   1.0
Cu243   Cu   0.920884752761812   0.521751282285370   0.173337661600000   1.0
Cu244   Cu   0.066585045169757   0.667983831615963   0.178349229600000   1.0
Cu245   Cu   0.095038932291174   0.103034059440660   0.187176692000000   1.0
Cu246   Cu   0.052053913576597   0.960721775645400   0.184199249200000   1.0
Cu247   Cu   0.083387634446795   0.384443442372432   0.177489034000000   1.0
Cu248   Cu   0.109576544571411   0.812165488272744   0.180403589600000   1.0
Cu249   Cu   0.140108128549815   0.240692787550158   0.177753686000000   1.0
Cu250   Cu   0.126686916124114   0.529656799587030   0.170557912000000   1.0
Cu251   Cu   0.167487233520142   0.674924471494845   0.168026414800000   1.0
Cu252   Cu   0.195799937110801   0.096232129466811   0.184757211200000   1.0
Cu253   Cu   0.151988491850131   0.955745035645334   0.183071774400000   1.0
Cu254   Cu   0.184085936379591   0.383488355291842   0.172406289600000   1.0
Cu255   Cu   0.209652400464003   0.811532874070606   0.184334092800000   1.0
Cu256   Cu   0.237851738664884   0.238566793038322   0.183146533600000   1.0
Cu257   Cu   0.228885934640140   0.522585122684132   0.169911984000000   1.0
Cu258   Cu   0.264513482286588   0.665675280591142   0.185994170000000   1.0
Cu259   Cu   0.294601097800850   0.093920346527574   0.188803526800000   1.0
Cu260   Cu   0.251812783273683   0.950576700398099   0.185179234000000   1.0
Cu261   Cu   0.281718872190908   0.379223544224388   0.180960950400000   1.0
Cu262   Cu   0.308988991447845   0.806663788958321   0.186925437200000   1.0
Cu263   Cu   0.337173365252364   0.236420016565181   0.183957287600000   1.0
Cu264   Cu   0.323507823393969   0.521395595460469   0.182638090800000   1.0
Cu265   Cu   -0.002251971965718   0.006961227653188   0.268869536400000   1.0
Cu266   Cu   0.953625133820254   0.865795557309883   0.265286441600000   1.0
Cu267   Cu   0.987528892839728   0.280996127469348   0.266224486800000   1.0
Cu268   Cu   0.968894701761672   0.552349392496632   0.256182995600000   1.0
Cu269   Cu   0.405236450212298   -0.000801242343236   0.283927324800000   1.0
Cu270   Cu   0.363757117543086   0.857051518257887   0.279878189600000   1.0
Cu271   Cu   0.389587220549539   0.285805740302459   0.281246979200000   1.0
Cu272   Cu   0.376309538950431   0.570495063458069   0.280729208400000   1.0
Cu273   Cu   0.419153085695260   0.711606078098421   0.285049976800000   1.0
Cu274   Cu   0.445888982192582   0.140796208811476   0.281858791200000   1.0
Cu275   Cu   0.429874628244816   0.426901067069546   0.282421004000000   1.0
Cu276   Cu   0.013545325844504   0.716651084839244   0.263949068400000   1.0
Cu277   Cu   0.044747986752883   0.144227842320675   0.274617571600000   1.0
Cu278   Cu   0.032733769113584   0.420115419128048   0.263086372400000   1.0
Cu279   Cu   0.501811525312163   -0.002346032653351   0.284966085600000   1.0
Cu280   Cu   0.460889646284183   0.853976962048396   0.282006751600000   1.0
Cu281   Cu   0.487485771525369   0.282497782594404   0.281704203200000   1.0
Cu282   Cu   0.474394787921356   0.568080936778298   0.284747359600000   1.0
Cu283   Cu   0.516523408124705   0.710520192434975   0.286983876400000   1.0
Cu284   Cu   0.543787250058386   0.137960706711088   0.284849588400000   1.0
Cu285   Cu   0.528067624932358   0.424916004241920   0.286566091600000   1.0
Cu286   Cu   0.599842977358075   -0.003276738982804   0.284573370400000   1.0
Cu287   Cu   0.557761823152859   0.854430887927018   0.284897275200000   1.0
Cu288   Cu   0.584961715109623   0.281538071180777   0.286660877200000   1.0
Cu289   Cu   0.571324357523524   0.567121638101135   0.286218222400000   1.0
Cu290   Cu   0.613185172350079   0.710617583985877   0.281104066800000   1.0
Cu291   Cu   0.641344555389871   0.139673177514195   0.285152395200000   1.0
Cu292   Cu   0.625574114811317   0.425778081775858   0.287151766000000   1.0
Cu293   Cu   0.697312703804522   -0.002322313939277   0.283252615600000   1.0
Cu294   Cu   0.655177286586272   0.853669891302580   0.283012865200000   1.0
Cu295   Cu   0.682545033433713   0.284311425018322   0.288995158000000   1.0
Cu296   Cu   0.669679302477800   0.570430298173910   0.285023120400000   1.0
Cu297   Cu   0.711262973735592   0.712188567821964   0.283684084000000   1.0
Cu298   Cu   0.738448842360456   0.143684423902508   0.282816422000000   1.0
Cu299   Cu   0.722887106026715   0.429895413746275   0.283090759600000   1.0
Cu300   Cu   0.794688540902060   0.002009811594551   0.273307873600000   1.0
Cu301   Cu   0.752241745948272   0.855511564169473   0.277270182400000   1.0
Cu302   Cu   0.778030723785043   0.289175992059391   0.273936736400000   1.0
Cu303   Cu   0.768329996433122   0.573109145080236   0.284635081600000   1.0
Cu304   Cu   0.809090343867679   0.715428898951941   0.271708336000000   1.0
Cu305   Cu   0.835879679128249   0.144781577206632   0.271553067600000   1.0
Cu306   Cu   0.817848523216983   0.432622224906125   0.269659550400000   1.0
Cu307   Cu   0.895413189452616   0.006386465801155   0.271723047200000   1.0
Cu308   Cu   0.852358906579160   0.863328689130200   0.278002603200000   1.0
Cu309   Cu   0.876873722371626   0.283408686787256   0.272386785600000   1.0
Cu310   Cu   0.866001270284236   0.569949821742555   0.265733481200000   1.0
Cu311   Cu   0.913864240588831   0.709049276133459   0.268342993200000   1.0
Cu312   Cu   0.937299391716933   0.144785994199530   0.265639787200000   1.0
Cu313   Cu   0.915826932565300   0.424233432081234   0.259362461200000   1.0
Cu314   Cu   0.104161416227214   0.007284499439113   0.269257808400000   1.0
Cu315   Cu   0.058088704694590   0.867354048902597   0.263842800800000   1.0
Cu316   Cu   0.090565033480209   0.281845111473510   0.262583514800000   1.0
Cu317   Cu   0.071571705834312   0.574559183525634   0.260660401600000   1.0
Cu318   Cu   0.116512099101400   0.722459965048932   0.265834590000000   1.0
Cu319   Cu   0.149730698627167   0.146898777256886   0.271100938000000   1.0
Cu320   Cu   0.137942409759353   0.444001678288837   0.254882322000000   1.0
Cu321   Cu   0.205015874068654   0.004585809446507   0.269680616400000   1.0
Cu322   Cu   0.159344748701735   0.865089337358410   0.269480969600000   1.0
Cu323   Cu   0.189938410308136   0.302338483813571   0.268965337200000   1.0
Cu324   Cu   0.183869221719619   0.585345752316524   0.250468292000000   1.0
Cu325   Cu   0.221631361189010   0.726887428623967   0.273140971600000   1.0
Cu326   Cu   0.249426506174194   0.147081318867298   0.277163144400000   1.0
Cu327   Cu   0.236068843187887   0.439915959210234   0.266326223200000   1.0
Cu328   Cu   0.308817083020909   0.005099577045555   0.273162525600000   1.0
Cu329   Cu   0.264880439569763   0.865294986379373   0.275380092400000   1.0
Cu330   Cu   0.292352863980743   0.291241235910509   0.270244240000000   1.0
Cu331   Cu   0.280821740339465   0.576176589522960   0.271260386800000   1.0
Cu332   Cu   0.321542072341427   0.716549507609286   0.275520389600000   1.0
Cu333   Cu   0.348527753034548   0.146980265819129   0.279498242000000   1.0
Cu334   Cu   0.332260349804938   0.429431551091494   0.287134434800000   1.0
Cu335   Cu   0.046424426480857   0.503234423879830   0.346328584400000   1.0
H336   H   0.951396958124431   0.579562488333068   0.352785162000000   1.0
H337   H   0.148288866190003   0.550775120375529   0.360354782000000   1.0
H338   H   0.147708596943243   0.423312834736886   0.352056666000000   1.0
H339   H   0.950104535836355   0.450499075489758   0.360769599600000   1.0
H340   H   0.867749795212161   0.669012193349604   0.361867825600000   1.0
H341   H   0.232907996600356   0.617269760600540   0.366237444800000   1.0
H342   H   0.231286607661536   0.334115303276745   0.361470387600000   1.0
H343   H   0.865450299384644   0.382936810436103   0.367085400800000   1.0
H344   H   0.816802768825193   0.247258697060312   0.371672584400000   1.0
H345   H   0.280980067208776   0.187785611203417   0.372102773200000   1.0
H346   H   0.818454325790405   0.814703700898372   0.371498792800000   1.0
H347   H   0.282301125289646   0.753431806508627   0.371954860000000   1.0
H348   H   0.769849900747481   0.116770245808862   0.391622368800000   1.0
H349   H   0.329129442505788   0.044202851872900   0.391631489600000   1.0
H350   H   0.770390069684289   0.957044215997367   0.391762737600000   1.0
H351   H   0.329583388615344   0.884918311548904   0.391059188000000   1.0


